@<TRIPOS>MOLECULE
RES
37 39 1 0 1
SMALL
NO_CHARGES
@<TRIPOS>CRYSIN
   11.2871     9.9340    19.9925    90.0000    90.0000    90.0000  1  1
@<TRIPOS>ATOM
       1 C           -0.0622    -0.6814     1.0132 C             1 RES
       2 C            0.0330    -1.5040    -0.1142 C             1 RES
       3 C            0.1160    -0.9367    -1.3898 C             1 RES
       4 C            0.1040     0.4537    -1.5389 C             1 RES
       5 C            0.0089     1.2780    -0.4126 C             1 RES
       6 C           -0.0744     0.7138     0.8661 C             1 RES
       7 O           -0.1687     1.5448     1.9801 O             1 RES
       8 H           -0.1261    -1.1273     1.9976 H             1 RES
       9 H            0.0423    -2.5802     0.0006 H             1 RES
      10 H            0.1683     0.8923    -2.5262 H             1 RES
      11 H           -0.0000     2.3538    -0.5328 H             1 RES
      12 C            0.5176     0.9298     5.6627 C             1 RES
      13 C            0.6009     1.4496     4.3669 C             1 RES
      14 C           -0.2601     0.9857     3.3690 C             1 RES
      15 C           -1.2063     0.0010     3.6649 C             1 RES
      16 C           -1.2936    -0.5219     4.9593 C             1 RES
      17 C           -0.4302    -0.0601     5.9695 C             1 RES
      18 C           -0.5050    -0.5974     7.3404 C             1 RES
      19 O           -1.3443    -1.4856     7.6462 O             1 RES
      20 H            1.1922     1.3000     6.4250 H             1 RES
      21 H            1.3335     2.2124     4.1366 H             1 RES
      22 H           -1.8728    -0.3575     2.8911 H             1 RES
      23 H           -2.0335    -1.2843     5.1688 H             1 RES
      24 C            0.8684     0.4761    10.7126 C             1 RES
      25 C           -0.0000     0.0000     9.7251 C             1 RES
      26 C            0.4282    -0.0864     8.3978 C             1 RES
      27 C            1.7258     0.3031     8.0556 C             1 RES
      28 C            2.5979     0.7799     9.0396 C             1 RES
      29 C            2.1743     0.8700    10.3781 C             1 RES
      30 C            3.0770     1.3697    11.4313 C             1 RES
      31 O            4.2537     1.7303    11.1625 O             1 RES
      32 H            0.5212     0.5371    11.7369 H             1 RES
      33 H           -1.0052    -0.3019     9.9891 H             1 RES
      34 H            2.0563     0.2357     7.0271 H             1 RES
      35 H            3.5994     1.0769     8.7544 H             1 RES
      36 H            0.1903    -1.5807    -2.2710 H             1 RES
      37 H            2.7281     1.4318    12.4663 H             1 RES
@<TRIPOS>BOND
       1        2        1 1
       2        6        1 1
       3        8        1 1
       4        3        2 1
       5        9        2 1
       6        5        6 1
       7        7        6 1
       8        4        3 1
       9       36        3 1
      10        5        4 1
      11       10        4 1
      12       11        5 1
      13       14        7 1
      14       13       14 1
      15       15       14 1
      16       13       12 1
      17       17       12 1
      18       20       12 1
      19       21       13 1
      20       16       17 1
      21       18       17 1
      22       16       15 1
      23       22       15 1
      24       23       16 1
      25       19       18 1
      26       26       18 1
      27       25       26 1
      28       27       26 1
      29       25       24 1
      30       29       24 1
      31       32       24 1
      32       33       25 1
      33       28       29 1
      34       30       29 1
      35       28       27 1
      36       34       27 1
      37       35       28 1
      38       31       30 1
      39       37       30 1
@<TRIPOS>SUBSTRUCTURE
       1 RES             1 RESIDUE    0 **** ROOT      0
